Version 4
SHEET 1 3448 836
WIRE 64 -32 -144 -32
WIRE 288 -32 64 -32
WIRE 592 -32 288 -32
WIRE 608 -32 592 -32
WIRE 704 -32 688 -32
WIRE 912 -32 800 -32
WIRE 1136 -32 912 -32
WIRE 1440 -32 1136 -32
WIRE 1456 -32 1440 -32
WIRE 1552 -32 1536 -32
WIRE 64 32 64 -32
WIRE 288 32 288 -32
WIRE 608 32 608 16
WIRE 912 32 912 -32
WIRE 1136 32 1136 -32
WIRE 1456 32 1456 16
WIRE 2016 96 2016 48
WIRE 2128 96 2016 96
WIRE 432 144 400 144
WIRE 608 144 608 112
WIRE 608 144 496 144
WIRE 1264 144 1216 144
WIRE 1456 144 1456 112
WIRE 1456 144 1328 144
WIRE 1712 176 1712 -32
WIRE -144 192 -144 -32
WIRE 800 192 800 -32
WIRE 2128 192 2128 96
WIRE 64 208 64 112
WIRE 400 208 400 144
WIRE 400 208 64 208
WIRE 512 208 400 208
WIRE 912 208 912 112
WIRE 1216 208 1216 144
WIRE 1216 208 912 208
WIRE 1344 208 1216 208
WIRE 2016 208 2016 96
WIRE 608 224 608 144
WIRE 608 224 544 224
WIRE 1456 224 1456 144
WIRE 1456 224 1376 224
WIRE 288 240 288 112
WIRE 512 240 288 240
WIRE 1136 240 1136 112
WIRE 1344 240 1136 240
WIRE 288 272 288 240
WIRE 608 272 608 224
WIRE 1136 272 1136 240
WIRE 1456 272 1456 224
WIRE 2016 320 2016 240
WIRE 2128 320 2128 256
WIRE 2128 320 2016 320
WIRE 288 368 288 336
WIRE 608 368 608 352
WIRE 608 368 288 368
WIRE 1136 368 1136 336
WIRE 1456 368 1456 352
WIRE 1456 368 1136 368
WIRE 64 384 64 208
WIRE 288 384 288 368
WIRE 912 384 912 208
WIRE 1136 384 1136 368
WIRE -144 496 -144 272
WIRE 64 496 64 464
WIRE 288 496 288 464
WIRE 912 496 912 464
WIRE 1136 496 1136 464
WIRE 1712 496 1712 256
WIRE 2016 496 2016 320
WIRE 800 512 800 288
FLAG -144 496 0
FLAG 1712 496 0
FLAG -144 -32 Vcc
FLAG 2016 496 0
FLAG 2016 48 Vcc
FLAG 1136 496 0
FLAG 912 496 0
FLAG 64 496 0
FLAG 288 496 0
FLAG 800 512 0
FLAG 704 -32 V_out
FLAG 1552 -32 V_out
FLAG 1712 -32 V_out
SYMBOL res 48 16 R0
SYMATTR InstName R1
SYMATTR Value 0.1Meg
SYMBOL res 48 368 R0
SYMATTR InstName R2
SYMATTR Value 1.3Meg
SYMBOL res 272 16 R0
SYMATTR InstName R3
SYMATTR Value 0.6Meg
SYMBOL res 272 368 R0
SYMATTR InstName R4
SYMATTR Value 0.402k
SYMBOL res 592 256 R0
SYMATTR InstName R5
SYMATTR Value 5Meg
SYMBOL res 592 16 R0
SYMATTR InstName R6
SYMATTR Value 1Meg
SYMBOL voltage -144 176 R0
WINDOW 123 0 0 Left 0
WINDOW 39 0 0 Left 0
SYMATTR InstName Bat1
SYMATTR Value 8
SYMBOL pmos 688 16 M270
SYMATTR InstName M1
SYMATTR Value RSL020P03
SYMBOL res 1696 160 R0
SYMATTR InstName NODs
SYMATTR Value 12
SYMBOL AutoGenerated\\MAX9944 528 224 R0
WINDOW 0 0 -56 Bottom 2
WINDOW 3 0 56 Top 2
SYMATTR InstName U3
SYMBOL zener 304 336 R180
WINDOW 0 24 64 Left 2
WINDOW 3 24 0 Left 2
SYMATTR InstName D1
SYMATTR Value BZX84B6V2L
SYMATTR Description Diode
SYMATTR Type diode
SYMBOL res 896 16 R0
SYMATTR InstName R7
SYMATTR Value 0.1Meg
SYMBOL res 1120 16 R0
SYMATTR InstName R8
SYMATTR Value 0.6Meg
SYMBOL res 1440 16 R0
SYMATTR InstName R9
SYMATTR Value 1Meg
SYMBOL pmos 1536 16 M270
SYMATTR InstName M2
SYMATTR Value RSL020P03
SYMBOL res 896 368 R0
SYMATTR InstName R10
SYMATTR Value 1.3Meg
SYMBOL res 1120 368 R0
SYMATTR InstName R11
SYMATTR Value 0.402k
SYMBOL res 1440 256 R0
SYMATTR InstName R12
SYMATTR Value 5Meg
SYMBOL zener 1152 336 R180
WINDOW 0 24 64 Left 2
WINDOW 3 24 0 Left 2
SYMATTR InstName D2
SYMATTR Value BZX84B6V2L
SYMATTR Description Diode
SYMATTR Type diode
SYMBOL voltage 800 176 R0
WINDOW 123 0 0 Left 0
WINDOW 39 0 0 Left 0
SYMATTR InstName Bat2
SYMATTR Value 8
SYMBOL cap 2112 192 R0
SYMATTR InstName C1
SYMATTR Value 100n
SYMBOL cap 496 128 R90
WINDOW 0 0 32 VBottom 2
WINDOW 3 32 32 VTop 2
SYMATTR InstName C2
SYMATTR Value 1n
SYMBOL cap 1328 128 R90
WINDOW 0 0 32 VBottom 2
WINDOW 3 32 32 VTop 2
SYMATTR InstName C3
SYMATTR Value 1n
TEXT -808 -16 Left 2 !.dc Bat1 8.4 4 0.1 Bat2 8.4 4 0.1
TEXT -808 24 Left 2 ;BNV-Battery Pack undervoltage protection\n \nExplanation:\nThe circuit checks for voltage of 2S2P\nTwo circuits for 4 cells total\nWhen the voltage of one cell stack drops below 5.7 V,\nthe P-Ch MOSFET will block.\n \nThe Output of the circuit can later be regulated.
TEXT -800 -56 Left 2 !include MAX9944.cir
